LAMMPS (27 Jun 2024)
### Some general info
units           si
dimension       2
boundary        p p p

#---------------------------------------------------------------------
# Specify atoms and bond attributes (tells lammps what to store)
#---------------------------------------------------------------------
atom_style      bond
special_bonds 	lj 1 1 1 coul 1 1 1
newton          on off

#---------------------------------------------------------------------
# Read in data from .dat file
#---------------------------------------------------------------------
read_data      verify_nobonds.dat extra/bond/per/atom 6 extra/special/per/atom 100
Reading data file ...
  orthogonal box = (-0.1 -0.1 -0.01) to (0.1 0.1 0.01)
  reading atoms ...
  2 atoms
Finding 1-2 1-3 1-4 neighbors ...
     0 = max # of 1-2 neighbors
   101 = max # of special neighbors

#---------------------------------------------------------------------
# Simulation Parameters
#---------------------------------------------------------------------
variable        dt equal 0.1      #timestep
variable        Nrun equal 0.5e6   #number of steps
variable        nout equal 1        #output frequency
mass            * 1e-6

variable        xi equal 0.0014     # Mesh size (m)
#---------------------------------------------------------------------
# Communication lengthscales
#---------------------------------------------------------------------
variable        ell equal $(v_xi*1.5)   #
variable        ell equal 0.0020999999999999998702
variable        Lmax equal $(v_xi*2.0)	# Maximum dynamic bond formation length
variable        Lmax equal 0.0027999999999999999716

#---------------------------------------------------------------------
# Parameter sweep
#---------------------------------------------------------------------
# Efficiency of the catch bond
variable        catch_eff equal 1.0       #$# CHANGE THIS AIDAN (= 1 is slip, >1 is catch)

#---------------------------------------------------------------------
# Bond Parameters
#---------------------------------------------------------------------

# Energy scale governing bond stiffness
variable        Energy equal 1.0533e-06

# Length at which bond force diverges
variable        Lcrit equal $(1.90*v_Lmax)
variable        Lcrit equal 0.0053200000000000000761

# Length at which bond force reaches 200 dynes (and breaks)
variable        Lfc equal 0.004125404

variable        fc equal 0.002                      # Critical force at which bonds break
variable        Kmax equal 3.487                    # Stiffness at bond failure   #$# USER INPUT Must match output from the builder

#---------------------------------------------------------------------
# Bond kinetic parameters
#---------------------------------------------------------------------

# Experimentally measured kinetic rates in units of [1/s]
variable        ka0 equal 0.0848
variable        kd0 equal 0.0074

variable        tauh equal $(1/(v_ka0+v_kd0))
variable        tauh equal 10.845986984815617404

# Transition state distance (for both slip and catch pathways)
variable        f0 equal 0.0004                     #$# USER INPUT

variable        B equal $((2.0*v_catch_eff^2)+2*sqrt(v_catch_eff^4-v_catch_eff^2)-1)
variable        B equal 1
variable        kd_bar equal $(v_kd0/(v_B+1))
variable        kd_bar equal 0.0037000000000000001638

#---------------------------------------------------------------------
# Define bond properties (nonlinear springs)
#---------------------------------------------------------------------
variable	    R equal 0
bond_style      nonlinear
bond_coeff      1 1.0533e-06 0 0.00532

#---------------------------------------------------------------------
# Define pairwise repulsion
#---------------------------------------------------------------------
pair_style      zero $(v_ell)
pair_style      zero 0.0020999999999999998702
pair_coeff      * * #zero $(v_Lcrit*2.0)

#############################################
##### Initialize particles and bond topology
#############################################
# Setup bond dynamics (fix the seed so results are same everytime)
fix              dynamics all bond/dynamic 1 1 1 0.0848 0.0037 0.0028 catch 0.0004 0.0004 1

#fix             integrate all nve  #no integration (dont want atoms to move)

# for inter-processor communication
neighbor        0.0021 bin
neigh_modify    page 1000000 one 100000

# Compute bond informations
compute         1 all property/local btype batom1 batom2
compute         2 all bond/local dist force engpot
compute         3 all count/type bond
compute         4 all reduce max c_2[2] inputs local
compute         5 all reduce sum c_1[1] inputs local
variable        force equal c_4
variable        nbtype1 equal c_3[1]

## Outputs
variable        vtime equal time
run             0

CITE-CITE-CITE-CITE-CITE-CITE-CITE-CITE-CITE-CITE-CITE-CITE-CITE

Your simulation uses code contributions which should be cited:

- Type Label Framework: https://doi.org/10.1021/acs.jpcb.3c08419

@Article{Gissinger24,
 author = {Jacob R. Gissinger, Ilia Nikiforov, Yaser Afshar, Brendon Waters, Moon-ki Choi, Daniel S. Karls, Alexander Stukowski, Wonpil Im, Hendrik Heinz, Axel Kohlmeyer, and Ellad B. Tadmor},
 title = {Type Label Framework for Bonded Force Fields in LAMMPS},
 journal = {J. Phys. Chem. B},
 year =    2024,
 volume =  128,
 number =  13,
 pages =   {3282â€“-3297}
}

CITE-CITE-CITE-CITE-CITE-CITE-CITE-CITE-CITE-CITE-CITE-CITE-CITE

Generated 0 of 0 mixed pair_coeff terms from geometric mixing rule
Step          Temp          E_pair         E_mol          TotEng         Press
0   0              0              0              0              0
Loop time of 3.1875e-06 on 8 procs for 0 steps with 2 atoms

unfix           printS

thermo          10000

### First outputs to files ###

#Dumps (dont output unless for debug - slows down simulations)

#dump_modify     mydump first yes
#dump_modify     bondsdump first yes

### Run Simulation ##
timestep        0.1
run             500000
Generated 0 of 0 mixed pair_coeff terms from geometric mixing rule
Step          Temp          E_pair         E_mol          TotEng         Press
0   0              0              0              0              0
Averages over the last 26 of 51 rows, steps 250000 to 500000:
Temp E_pair E_mol TotEng Press
0 0 2.75559e-07 2.75559e-07 -8.84141e-06
Loop time of 73.1603 on 8 procs for 500000 steps with 2 atoms
