LAMMPS (27 Jun 2024)
### Some general info
units           si
dimension       2
boundary        s s p

#---------------------------------------------------------------------
# Specify atoms and bond attributes (tells lammps what to store)
#---------------------------------------------------------------------
atom_style      bpm/sphere
special_bonds 	lj 1 1 1 coul 1 1 1
newton          on off

#---------------------------------------------------------------------
# Read in data from .dat file
#---------------------------------------------------------------------
read_data       CatchAtoms_small.dat extra/bond/per/atom 10 extra/special/per/atom 100  #$# USER INPUT (name of .dat folder)
Reading data file ...
  orthogonal box = (-0.03 -0.025 -0.0025) to (0.03 0.025 0.0025)
  reading atoms ...
  769 atoms
Finding 1-2 1-3 1-4 neighbors ...
     0 = max # of 1-2 neighbors
   101 = max # of special neighbors

#---------------------------------------------------------------------
# Simulation parameters
#---------------------------------------------------------------------
variable        chi equal 0.005         # Damping multiplier
variable        alpha equal 0.1         # Timestep multiplier

variable        xi equal 0.0014         # Mesh size (m)   #$# USER INPUT Must match output from the builder

#---------------------------------------------------------------------
# Communication lengthscales
#---------------------------------------------------------------------
variable        ell equal $(v_xi*1.5)   #
variable        ell equal 0.0020999999999999998702
variable        Lmax equal $(v_xi*2.0)	# Maximum dynamic bond formation length
variable        Lmax equal 0.0027999999999999999716

#---------------------------------------------------------------------
# Parameter sweep
#---------------------------------------------------------------------

# Efficiency of the catch bond
variable        catch_eff equal 1.0       #$# USER INPUT

# Weissenberg number
variable        Wi equal 0.75              #$# USER INPUT

#---------------------------------------------------------------------
# Bond Parameters
#---------------------------------------------------------------------

# Energy scale governing bond stiffness
variable        Energy equal 1.0533e-06

# Length at which bond force diverges
variable        Lcrit equal $(1.90*v_Lmax)
variable        Lcrit equal 0.0053200000000000000761

# Length at which bond force reaches 200 dynes (and breaks)
variable        Lfc equal 0.004125404

variable        fc equal 0.002                      # Critical force at which bonds break
variable        Kmax equal 3.487                    # Stiffness at bond failure   #$# USER INPUT Must match output from the builder

#---------------------------------------------------------------------
# Pairwise Potential Parameters
#---------------------------------------------------------------------

variable        rscreen equal $(0.1818*v_ell)       # Screening length (governs pairwise decay lengthscale)
variable        rscreen equal 0.00038177999999999996661
variable        Apair equal $(v_Energy/15)          # Energy scale for pairwise forces
variable        Apair equal 7.0219999999999989538e-08
variable	    cutoff_rep equal 0.0021

#---------------------------------------------------------------------
# Bond kinetic parameters
#---------------------------------------------------------------------

# Experimentally measured kinetic rates in units of [1/s]
variable        ka0 equal 0.0848
variable        kd0 equal 0.0074

variable        tauh equal $(1/(v_ka0+v_kd0))
variable        tauh equal 10.845986984815617404

# Transition state distance (for both slip and catch pathways)
variable        f0 equal 0.0004                     #$# USER INPUT

variable        B equal $((2.0*v_catch_eff^2)+2*sqrt(v_catch_eff^4-v_catch_eff^2)-1)
variable        B equal 1
variable        kd_bar equal $(v_kd0/(v_B+1))
variable        kd_bar equal 0.0037000000000000001638

#---------------------------------------------------------------------
# Define bond properties (nonlinear springs)
#---------------------------------------------------------------------
variable	    R equal 0
bond_style      nonlinear
bond_coeff      * 1.0533e-06 0 0.00532

#---------------------------------------------------------------------
# Define pairwise repulsion
#---------------------------------------------------------------------
variable	    kappa equal $(1.0/v_rscreen)
variable	    kappa equal 2619.3095500026192894
pair_style      hybrid/overlay yukawa 2619.30955000262 0.0021 zero $(v_Lcrit*2.5)
pair_style      hybrid/overlay yukawa 2619.30955000262 0.0021 zero 0.013299999999999999323
pair_coeff      * * yukawa 7.0220000000000002773e-08 0.0021
pair_coeff      * * zero $(v_Lcrit*2.5)  # Added pairwise cutoff distance for communication
pair_coeff      * * zero 0.013299999999999999323

####################################
#### Derived Simulation Parameters
####################################
# Calculate minimum mass
compute         getmass all property/atom mass
compute         minmass all reduce min c_getmass

run             0

CITE-CITE-CITE-CITE-CITE-CITE-CITE-CITE-CITE-CITE-CITE-CITE-CITE

Your simulation uses code contributions which should be cited:

- Type Label Framework: https://doi.org/10.1021/acs.jpcb.3c08419

@Article{Gissinger24,
 author = {Jacob R. Gissinger, Ilia Nikiforov, Yaser Afshar, Brendon Waters, Moon-ki Choi, Daniel S. Karls, Alexander Stukowski, Wonpil Im, Hendrik Heinz, Axel Kohlmeyer, and Ellad B. Tadmor},
 title = {Type Label Framework for Bonded Force Fields in LAMMPS},
 journal = {J. Phys. Chem. B},
 year =    2024,
 volume =  128,
 number =  13,
 pages =   {3282â€“-3297}
}

CITE-CITE-CITE-CITE-CITE-CITE-CITE-CITE-CITE-CITE-CITE-CITE-CITE

Generated 0 of 0 mixed pair_coeff terms from geometric mixing rule
Step          Temp          E_pair         E_mol          TotEng         Press          Volume
0   0              0.00070103961  0              0.00070103961  0.73094221     0.0024958017
Loop time of 5.5625e-06 on 8 procs for 0 steps with 769 atoms

reset_timestep  0 time 0

# Calculate timestep
variable        dt equal $(v_alpha*sqrt(c_minmass/v_Kmax))
variable        dt equal 0.00067563187300704512315

#---------------------------------------------------------------------
# Loading parameters
#---------------------------------------------------------------------
variable        erate equal $(v_Wi*v_kd0)           #Engineering strain rate
variable        erate equal 0.0055500000000000002456
variable        lammax equal 1.50                    #desired stretch #$# USER INPUT

variable        H0 equal $(yhi-ylo)                 #inital height
variable        H0 equal 0.049952800000000005531
variable        H equal yhi-ylo
variable        Hf equal $(v_H0*v_lammax)           #final height
variable        Hf equal 0.074929200000000001358

variable        Nrun equal $(ceil((v_lammax-1)/v_erate/v_dt))
variable        Nrun equal 133342
variable        nout equal $(ceil(v_Nrun/200))
variable        nout equal 667
variable        nthermo equal $(ceil(v_nout/10))
variable        nthermo equal 67

#############################################
##### Initialize particles and bond topology
#############################################

# for inter-processor communication
neighbor        $(2.5*v_ell) bin
neighbor        0.0052499999999999994588 bin
neigh_modify    page 1000000 one 100000 #exclude molecule/intra all

#---------------------------------------------------------------------
# Setup computes
#---------------------------------------------------------------------

# Compute bond informations
compute         1 all property/local btype batom1 batom2
compute         2 all bond/local dist force engpot
compute         4 all reduce max c_2[1] inputs local
compute         5 all reduce sum c_1[1] inputs local
variable        Bmax equal c_4
variable        vbonds equal c_5

#---------------------------------------------------------------------
# Setup thermos
#---------------------------------------------------------------------

# Outputs in command window
thermo_style    custom step atoms v_vbonds ebond epair
thermo          $(v_nthermo)
thermo          67
thermo_modify	flush yes lost warn lost/bond warn

#---------------------------------------------------------------------
# Initialize topology
#---------------------------------------------------------------------

# Initialize bond topology at experimentally-measured rates for proper initial conditions
# NOTE: bondtype1 = fixed bonds, bondtype2 = dynamic bonds
timestep        $(v_dt)
timestep        0.00067563187300704501473

#create fixed bonds
fix             dynamics all bond/dynamic 1 1 1 8.4800000000000004263 0.0074 0.0028 maxbond 5
run             5000
Generated 0 of 0 mixed pair_coeff terms from geometric mixing rule
Step        Atoms       v_vbonds        E_bond         E_pair
0         769   0              0              0.00070103961
Averages over the last 38 of 76 rows, steps 2546 to 5000:
Atoms v_vbonds E_bond E_pair
769 1773.16 0.000352024 0.00070104
Loop time of 3.16747 on 8 procs for 5000 steps with 769 atoms

unfix           dynamics

#set fraction to dynamic
set             type/fraction 1 0.1 155555 bond 2 #
ERROR: Unknown set command style: type/fraction (src/set.cpp:72)
Last command: set             type/fraction 1 0.1 155555 bond 2 #
