LAMMPS (27 Jun 2024)
### Some general info
units           si
dimension       2
boundary        s s p

#---------------------------------------------------------------------
# Specify atoms and bond attributes (tells lammps what to store)
#---------------------------------------------------------------------
atom_style      bpm/sphere
special_bonds 	lj 1 1 1 coul 1 1 1
newton          on off

#---------------------------------------------------------------------
# Read in data from .dat file
#---------------------------------------------------------------------
read_data       CatchAtoms_small.dat extra/bond/per/atom 6 extra/special/per/atom 100  #$# USER INPUT (name of .dat folder)
Reading data file ...
  orthogonal box = (-0.03 -0.025 -0.0025) to (0.03 0.025 0.0025)
  reading atoms ...
  769 atoms
Finding 1-2 1-3 1-4 neighbors ...
     0 = max # of 1-2 neighbors
   101 = max # of special neighbors

#---------------------------------------------------------------------
# Simulation parameters
#---------------------------------------------------------------------
variable        chi equal 0.005         # Damping multiplier
variable        alpha equal 0.1         # Timestep multiplier

variable        xi equal 0.0014         # Mesh size (m)   #$# USER INPUT Must match output from the builder

#---------------------------------------------------------------------
# Communication lengthscales
#---------------------------------------------------------------------
variable        ell equal $(v_xi*1.5)   #
variable        ell equal 0.0020999999999999998702
variable        Lmax equal $(v_xi*2.0)	# Maximum dynamic bond formation length
variable        Lmax equal 0.0027999999999999999716

#---------------------------------------------------------------------
# Parameter sweep
#---------------------------------------------------------------------

# Efficiency of the catch bond
variable        catch_eff equal 1.0       #$# USER INPUT

# Weissenberg number
variable        Wi equal 10              #$# USER INPUT

#---------------------------------------------------------------------
# Bond Parameters
#---------------------------------------------------------------------

# Energy scale governing bond stiffness
variable        Energy equal 1.0533e-06

# Length at which bond force diverges
variable        Lcrit equal $(1.90*v_Lmax)
variable        Lcrit equal 0.0053200000000000000761

# Length at which bond force reaches 200 dynes (and breaks)
variable        Lfc equal 0.004125404

variable        fc equal 0.002                      # Critical force at which bonds break
variable        Kmax equal 3.487                    # Stiffness at bond failure   #$# USER INPUT Must match output from the builder

#---------------------------------------------------------------------
# Pairwise Potential Parameters
#---------------------------------------------------------------------

variable        rscreen equal $(0.1818*v_ell)       # Screening length (governs pairwise decay lengthscale)
variable        rscreen equal 0.00038177999999999996661
variable        Apair equal $(v_Energy/15)          # Energy scale for pairwise forces
variable        Apair equal 7.0219999999999989538e-08
variable	    cutoff_rep equal 0.0021

#---------------------------------------------------------------------
# Bond kinetic parameters
#---------------------------------------------------------------------

# Experimentally measured kinetic rates in units of [1/s]
variable        ka0 equal 0.0848
variable        kd0 equal 0.0074

variable        tauh equal $(1/(v_ka0+v_kd0))
variable        tauh equal 10.845986984815617404

# Transition state distance (for both slip and catch pathways)
variable        f0 equal 0.0004                     #$# USER INPUT

variable        B equal $((2.0*v_catch_eff^2)+2*sqrt(v_catch_eff^4-v_catch_eff^2)-1)
variable        B equal 1
variable        kd_bar equal $(v_kd0/(v_B+1))
variable        kd_bar equal 0.0037000000000000001638

#---------------------------------------------------------------------
# Define bond properties (nonlinear springs)
#---------------------------------------------------------------------
variable	    R equal 0
bond_style      nonlinear
bond_coeff      1 1.0533e-06 0 0.00532

#---------------------------------------------------------------------
# Define pairwise repulsion
#---------------------------------------------------------------------
variable	    kappa equal $(1.0/v_rscreen)
variable	    kappa equal 2619.3095500026192894
pair_style      hybrid/overlay yukawa 2619.30955000262 0.0021 zero $(v_Lcrit*2.5)
pair_style      hybrid/overlay yukawa 2619.30955000262 0.0021 zero 0.013299999999999999323
pair_coeff      * * yukawa 7.0220000000000002773e-08 0.0021
pair_coeff      * * zero $(v_Lcrit*2.5)  # Added pairwise cutoff distance for communication
pair_coeff      * * zero 0.013299999999999999323

####################################
#### Derived Simulation Parameters
####################################
# Calculate minimum mass
compute         getmass all property/atom mass
compute         minmass all reduce min c_getmass

run             0

CITE-CITE-CITE-CITE-CITE-CITE-CITE-CITE-CITE-CITE-CITE-CITE-CITE

Your simulation uses code contributions which should be cited:

- Type Label Framework: https://doi.org/10.1021/acs.jpcb.3c08419

@Article{Gissinger24,
 author = {Jacob R. Gissinger, Ilia Nikiforov, Yaser Afshar, Brendon Waters, Moon-ki Choi, Daniel S. Karls, Alexander Stukowski, Wonpil Im, Hendrik Heinz, Axel Kohlmeyer, and Ellad B. Tadmor},
 title = {Type Label Framework for Bonded Force Fields in LAMMPS},
 journal = {J. Phys. Chem. B},
 year =    2024,
 volume =  128,
 number =  13,
 pages =   {3282â€“-3297}
}

CITE-CITE-CITE-CITE-CITE-CITE-CITE-CITE-CITE-CITE-CITE-CITE-CITE

Generated 0 of 0 mixed pair_coeff terms from geometric mixing rule
Step          Temp          E_pair         E_mol          TotEng         Press          Volume
0   0              0.00070103961  0              0.00070103961  0.73094221     0.0024958017
Loop time of 4.4125e-06 on 8 procs for 0 steps with 769 atoms

reset_timestep  0 time 0

# Calculate timestep
variable        dt equal $(v_alpha*sqrt(c_minmass/v_Kmax))
variable        dt equal 0.00067563187300704512315

#---------------------------------------------------------------------
# Loading parameters
#---------------------------------------------------------------------
variable        erate equal $(v_Wi*v_kd0)           #Engineering strain rate
variable        erate equal 0.074000000000000010214
variable        lammax equal 4                    #desired stretch #$# USER INPUT

variable        H0 equal $(yhi-ylo)                 #inital height
variable        H0 equal 0.049952800000000005531
variable        H equal yhi-ylo
variable        Hf equal $(v_H0*v_lammax)           #final height
variable        Hf equal 0.19981119999999999437

variable        Nrun equal $(ceil((v_lammax-1)/v_erate/v_dt))
variable        Nrun equal 60004
variable        nout equal $(ceil(v_Nrun/200))
variable        nout equal 301
variable        nthermo equal $(ceil(v_nout/10))
variable        nthermo equal 31

#############################################
##### Initialize particles and bond topology
#############################################

# for inter-processor communication
neighbor        $(2.5*v_ell) bin
neighbor        0.0052499999999999994588 bin
neigh_modify    page 1000000 one 100000 #exclude molecule/intra all

#---------------------------------------------------------------------
# Setup computes
#---------------------------------------------------------------------

# Compute bond informations
compute         1 all property/local btype batom1 batom2
compute         2 all bond/local dist force engpot
compute         4 all reduce max c_2[1] inputs local
compute         5 all reduce sum c_1[1] inputs local
variable        Bmax equal c_4
variable        vbonds equal c_5

#---------------------------------------------------------------------
# Setup thermos
#---------------------------------------------------------------------

# Outputs in command window
thermo_style    custom step atoms v_vbonds ebond epair
thermo          $(v_nthermo)
thermo          31
thermo_modify	flush yes lost warn lost/bond warn

#---------------------------------------------------------------------
# Initialize topology
#---------------------------------------------------------------------

# Initialize bond topology at experimentally-measured rates for proper initial conditions
timestep        $(v_dt)
timestep        0.00067563187300704501473
fix             dynamics all bond/dynamic 1 1 1 8.4800000000000004263 0.0074 0.0028 maxbond 6
run             5000
Generated 0 of 0 mixed pair_coeff terms from geometric mixing rule
Step        Atoms       v_vbonds        E_bond         E_pair
0         769   0              0              0.00070103961
Averages over the last 82 of 163 rows, steps 2511 to 5000:
Atoms v_vbonds E_bond E_pair
769 2069.7 0.000411885 0.00070104
Loop time of 3.55423 on 8 procs for 5000 steps with 769 atoms

unfix           dynamics

# Outputs in command window
thermo_style    custom step atoms v_vbonds ebond epair lx ly fmax
thermo          $(v_nthermo)
thermo          31
thermo_modify	flush yes lost warn lost/bond warn

#---------------------------------------------------------------------
# Setup BC
#---------------------------------------------------------------------

### Define groups ###
region		    top block INF INF $(yhi-v_H0/20.0) INF INF INF units box
region		    top block INF INF 0.022461460000000002535 INF INF INF units box
region		    bot block INF INF INF $(ylo+v_H0/20.0)  INF INF units box
region		    bot block INF INF INF -0.02249606000000000175  INF INF units box
group		    top_atoms region top
49 atoms in group top_atoms
group		    bot_atoms region bot
44 atoms in group bot_atoms
group       	top_atoms include molecule
49 atoms in group top_atoms
group       	bot_atoms include molecule
44 atoms in group bot_atoms
group       	bulk_atoms subtract all top_atoms bot_atoms
676 atoms in group bulk_atoms
group       	boundary_atoms subtract all bulk_atoms
93 atoms in group boundary_atoms

# Boundary conditions
timestep        $(v_dt)
timestep        0.00067563187300704501473
fix             top_zero top_atoms setforce 0.0 0.0 0.0
fix             bot_zero bot_atoms setforce 0.0 0.0 0.0
fix             integrate all nve
fix             damp all viscous $(c_minmass*v_chi/v_dt)
fix             damp all viscous 0.001177964170587783143

# Equilibrate
reset_timestep  0 time 0
dump            mydumpdebug all custom 5000 atoms_equilib.dump id type mol x y
dump_modify     mydumpdebug first yes
dump 		    bondsdumpdebug all local 5000 bonds_equilib.dump c_1[*] c_2[*]
dump_modify     bondsdumpdebug first yes
fix             2dfix all enforce2d
run             50000
Generated 0 of 0 mixed pair_coeff terms from geometric mixing rule
Step        Atoms       v_vbonds        E_bond         E_pair           Lx             Ly            Fmax
0         769   2071           0.00041236811  0.00070103961  0.0499632      0.0499528      0.0057710232
Averages over the last 807 of 1614 rows, steps 25017 to 50000:
Atoms v_vbonds E_bond E_pair Lx Ly Fmax
769 2071 0.000479525 0.000326982 0.0602736 0.0499528 0.00082973
Loop time of 3.44679 on 8 procs for 50000 steps with 769 atoms

undump          mydumpdebug
undump          bondsdumpdebug

####################################
#### Setup final thermo and computes
####################################

fix              dynamics all bond/dynamic 1 1 1 0.0848 0.0037 0.0028 maxbond 6 critical 0.004125404 catch 0.0004 0.0004 1

# Fix simulation in the y direction
change_box      all boundary s f p
Changing box ...

# Compute 'press' stress on each atom and sum throughout system
compute         6 all stress/atom NULL
compute         Pbond all reduce sum c_6[*]

# Define stretch in the y direction
variable        H equal yhi-ylo
variable        lamy equal v_H/v_H0

# Potential bond energy
compute         PE all pe bond
variable        psi equal c_PE

# Stress variables
variable        Pb1 equal c_Pbond[1]
variable        Pb2 equal c_Pbond[2]
variable        Pb12 equal c_Pbond[4]

# Outputs in command window
variable        vfmax equal fmax
thermo_style    custom step atoms v_vbonds v_psi epair v_lamy v_Bmax v_vfmax v_Pb2
thermo          $(v_nthermo)
thermo          31
thermo_modify	flush yes lost warn lost/bond warn

####################################
#### Apply deformation
####################################

reset_timestep  0 time 0
variable        vtime equal time
run             0
Generated 0 of 0 mixed pair_coeff terms from geometric mixing rule
Step        Atoms       v_vbonds        v_psi          E_pair         v_lamy         v_Bmax        v_vfmax         v_Pb2
0         769   2071           0.00047939725  0.00032696278  1              0.0036671242   0.00074653954 -0.00042897652
Loop time of 5.05e-06 on 8 procs for 0 steps with 769 atoms

unfix           printS

### First outputs to files ###
dump            mydump all custom 301 atoms.dump id type mol x y
dump 		    bondsdump all local 301 bonds.dump c_1[*] c_2[*]
dump_modify     mydump first yes
dump_modify     bondsdump first yes

### Apply deformation ###
fix             stretch boundary_atoms deform 1 y erate 0.074
timestep        $(v_dt)
timestep        0.00067563187300704501473
run             $(ceil(v_Nrun))
run             60004
Generated 0 of 0 mixed pair_coeff terms from geometric mixing rule
Step        Atoms       v_vbonds        v_psi          E_pair         v_lamy         v_Bmax        v_vfmax         v_Pb2
0         769   2071           0.00047939725  0.00032696278  1              0.0036671242   0.00074653954 -0.00042897652
Averages over the last 969 of 1937 rows, steps 30008 to 60004:
Atoms v_vbonds v_psi E_pair v_lamy v_Bmax v_vfmax v_Pb2
769 1748.01 0.000422196 0.000158994 3.25045 0.00404091 0.000891914 0.000137975
Loop time of 44.327 on 8 procs for 60004 steps with 769 atoms

####################################
#### Apply unloading
####################################
# unfix           stretch
# unfix           dynamics
# fix             stretch boundary_atoms deform 1 y erate $(-1*v_erate)
# run             $(ceil(v_Nrun/2))

# unfix           stretch
# fix             stretch boundary_atoms deform 1 y erate $(v_erate)
# run             $(ceil(v_Nrun))

# unfix           stretch
# unfix           dynamics
# fix             stretch boundary_atoms deform 1 y erate $(-1*v_erate)
# run             $(ceil(v_Nrun/2))
